/*--------------------------------*- C++ -*----------------------------------*\
| =========                 |                                                 |
| \\      /  F ield         | OpenFOAM: The Open Source CFD Toolbox           |
|  \\    /   O peration     | Version:  3.0.x                                 |
|   \\  /    A nd           | Web:      www.OpenFOAM.org                      |
|    \\/     M anipulation  |                                                 |
\*---------------------------------------------------------------------------*/
FoamFile
{
    version     2.0;
    format      ascii;
    class       dictionary;
    location    "constant";
    object      HFDIBDict;
}
// * * * * * * * * * * * * * * * * * * * * * * * * * * * * * * * * * * * * * //
bodyList 
(
    "cylinderUp"
    "cylinderDown"
);

interpolationSchemes
{
    U cellPointFace;
}

cylinderUp
{

    fileName  sphere.stl;

    transform
    {
        translate (0 0 -0.01);
    }

    staticBody;
    //fluidCoupling;

    rho         rho [1 -3 0 0 0 0 0] 5000;

    refineMC 5;

    U
    {
       BC  noSlip;
    }

}

cylinderDown
{

    fileName  sphere.stl;

    transform
    {
        translate (0.02 0 0.01);
    }

    staticBody;
    //fluidCoupling;

    rho         rho [1 -3 0 0 0 0 0] 5000;

    refineMC 5;

    U
    {
       BC  noSlip;
    }

}


// ************************************************************************* //
